27
Coordinates from ORCA-job sil4_178300_77591
  H   2.29148410938682      1.20341024131931      0.74189000840895
  O   1.90504315725381      2.09401026129092      0.80968880850675
  Si  0.34774715058619      2.33307200153405      0.42365626610678
  O   -0.56443523275974      1.02516656763475      0.73199866442180
  O   -0.17438527274195      3.66001160035762      1.21355537627355
  O   0.09528427415456      2.62454925450867     -1.18597098226152
  Si  -0.77874287679612     -0.57669790891934      0.57014093847145
  H   0.18165677748610      3.81770133960423      2.09191915619778
  H   0.46979565194726      3.43573143140517     -1.54205552826496
  O   -0.84658020413905     -0.93937270241388     -1.02885382951157
  O   -2.11184370696320     -1.06599368764358      1.35510162502405
  O   0.49318161197222     -1.36831785926157      1.19389980744703
  Si  -1.83229517677085     -0.46372675171830     -2.25185430408508
  H   -2.94582774344669     -0.87715878152989      0.90996069739613
  Si  1.94002849065753     -1.92576915826962      0.71312819851521
  O   -3.31104666867619     -0.36235637515788     -1.51622457880846
  O   -1.35603666589600      0.92389000937290     -2.92765495307369
  O   2.65309798940677     -2.89917022910740      1.80290816291697
  O   2.88370052289385     -0.57522121057675      0.59254958980857
  O   1.81017721193203     -2.74658170598311     -0.69256187541287
  H   2.40635496900594     -3.82764834595531      1.80920263250274
  O   -1.82899059804541     -1.57142714046866     -3.44889800072368
  H   -2.32960030073365     -2.37897622306101     -3.31007938480148
  H   -3.97793876921999      0.17979673759540     -1.94673645285422
  H   -0.87085083648535      1.56360933517167     -2.37548453625741
  H   3.82032874366136     -0.70633469157626      0.41746759864826
  H   1.13721339232976     -2.44253600815212     -1.31238310459101
