27
Coordinates from ORCA-job sil4_138000_55014
  Si  2.56345758096947     -0.45697410168578     -1.53446523768342
  O   1.93969665350361      0.61529655890985     -0.48906108631666
  O   4.04351730189598     -0.02224138902495     -2.06333766694601
  O   1.60996739296502     -0.64823479020994     -2.83735073264723
  O   2.75940983124078     -1.82921829508692     -0.63935392713342
  Si  0.71294730317229      1.20417397544977      0.39590418096631
  O   1.03332715510609      2.72215276096345      0.88376018597467
  O   -0.60869785290871      1.34722603880237     -0.55526218469606
  O   0.40802618611340      0.22980064302675      1.64453623227495
  H   1.73152236100272      2.85409674451275      1.52945463492351
  Si  -1.86670901481918      0.62401211390487     -1.25053747985662
  Si  0.25241599584424     -1.33840886051193      2.13529514295020
  O   -2.89568609224804      1.72441772709952     -1.87138537941281
  O   -2.75284308589735     -0.30801258018876     -0.22636717807539
  O   -1.22380456660813     -0.39967667130592     -2.36909197441509
  O   -0.19051402690616     -1.35061226171283      3.70639464312575
  O   1.66903344195574     -2.12226251731859      2.00693933825323
  O   -0.89759562064115     -2.04983473810216      1.22899528885712
  H   -2.54153536780826      2.55142736923120     -2.20873782785299
  H   -3.50523929083232      0.10788537994078      0.20572370559085
  H   -1.80687691071460     -1.05943884290810     -2.75680709861192
  H   0.51431674951604     -1.36622893868190      4.35829573736813
  H   -1.63522598622376     -1.52617127385661      0.88772433532004
  H   4.08517430408781      0.51818185706368     -2.85648532082512
  H   0.64529878628766     -0.61159664534561     -2.73014417524382
  H   3.19339001850323     -2.57295534888823     -1.06727154007063
  H   2.11317675344351     -2.10997391407673      1.14304538418245
