21
Coordinates from ORCA-job sil3_223000_101382
  Si  1.44104120910192      0.01336231347745      0.62651650992080
  O   0.15154382025260      0.48632826614669      1.51487571968695
  O   0.89923020598173     -0.64757693490939     -0.76101615664665
  Si  -0.86590849605040      1.75675468603258      1.59644548782038
  Si  -0.38702938518693     -1.10197515128629     -1.62227955587132
  O   -2.16333607175737      1.60449414444225      0.63998454093156
  O   0.10648190354163      3.02665960017260      1.14543476007743
  O   -1.46729066504366      1.96752814295273      3.09621857169376
  O   -1.05314569796534     -2.36528844804822     -0.84138947368692
  O   0.04224607794885     -1.39967458314562     -3.17154785752255
  O   -1.52440991160032      0.09595805131211     -1.73132959711115
  H   -1.90406733405115     -2.69359453771523     -1.14259359089758
  H   0.86977360234425     -1.85872607101604     -3.33696145788143
  O   2.30086979958139     -1.15313583916888      1.36452060670309
  O   2.39585510478242      1.30614634353785      0.34106317154336
  H   -2.06402362754707      1.09952717110835     -0.18385197699693
  H   -0.32145076879452      3.87389157679405      0.99398777606205
  H   -0.84679142436198      2.12528030291995      3.81153807990728
  H   -1.50289441435627      0.61847657321619     -2.53913625766765
  H   2.94138182403972     -0.87920566926273      2.02530693810027
  H   1.95491424914052      2.16103006243959      0.44153376183522
